/*--------------------------------*- C++ -*----------------------------------*\
| =========                 |                                                 |
| \\      /  F ield         | OpenFOAM Extend Project: Open Source CFD        |
|  \\    /   O peration     | Version:  1.6-ext                               |
|   \\  /    A nd           | Web:      www.extend-project.de                 |
|    \\/     M anipulation  |                                                 |
\*---------------------------------------------------------------------------*/
FoamFile
{
    version     2.0;
    format      ascii;
    class       dictionary;
    object      RASProperties; 
}
// * * * * * * * * * * * * * * * * * * * * * * * * * * * * * * * * * * * * * //

RASModel            turbulentPotentialBlend;

turbulence          on;

printCoeffs         on;

turbulentPotentialBlendCoeffs{

	solveK              true;
	solveEps            true;
	solvePsi            true;
	solvePhi            true;
	solveNut            true;

	sigmaK              1.0;  
	sigmaEps            0.83; 
	sigmaPhi            0.4;
	sigmaPsi            1.0; 
	
	prodType			1.1;
	cPrK				0.2;
	cPrP				1.0; 
	pMix				0.5;
	gType               7.0;
	cB 					6.0;
	cG 					0.05;
	cGw					3.0;
	cLw                 0.0;
	cGp					0.33;

	eqncEp1             true;
	eqncEp2             false;
        cEp1Type			2.0;
	cEp1				1.44;                           
        cEp2con				1.83;
        cEp4			0.06;
	eqnEpsHat           mod;
	cEhmM				10.0;	  
	
	transType           6.0;
	cT                  0.0; 
	cA                  0.0;  
	
	dampType			15.0;
	cNF					1.0; 
	cN1					1.0;  
	cN2					2.2;
	cND1                0.8;
	cND2                0.8;
	nutRatMax			1e5;
	eqncMu				false;
	cMu					0.21;
	betaK				0.09; 
    nutReal				false;
	nutType				5.0;
	
	tslimiter			false;
	lslimiter			false;

	cD1					0.0; 
	cD2					0.0;
	cD3					1.0;
	cD4					1.0;
 
	cP1					1.8; 
    cP1beta            	1.0;
	cP1chi				0.9;
    cP1pow				1.0;
	cP1type				0.0;
    cP2					0.6;  
	cP3				 	0.8;
	cP4					0.006;  
    cP5                 0.0;
    psksType            0.0;

	debugWrite          true;
}


boundaryCoeffs{
	tslimiter			false;
	nutRatMax			1e5;
	cMu					0.21;
	betaK				0.09;
}

// ************************************************************************* //


